*HEADING
cubit(kendrickshepherd/models/models/misc/Wide_angle_flange.inp): 10/10/2024: 17
version: 16.14.1
**
********************************** P A R T S **********************************
*PART, NAME=Part-Default
**
********************************** N O D E S **********************************
*NODE, NSET=ALLNODES
       1,    9.012797e-02,    5.514556e+00,    0.000000e+00
       2,    9.012797e-02,    5.514556e+00,    4.000000e+00
       3,   -3.953590e-16,    7.339323e+00,    4.000000e+00
       4,   -2.384632e-02,    7.338145e+00,    4.000000e+00
       5,   -2.384632e-02,    7.338145e+00,    0.000000e+00
       6,    1.859678e-14,    7.339323e+00,    0.000000e+00
       7,   -5.514556e+00,    9.012797e-02,    0.000000e+00
       8,   -7.338145e+00,   -2.384632e-02,    0.000000e+00
       9,   -7.338145e+00,   -2.384632e-02,    4.000000e+00
      10,   -5.514556e+00,    9.012797e-02,    4.000000e+00
      11,    3.963110e+00,    3.835650e+00,    0.000000e+00
      12,    5.171990e+00,    5.205714e+00,    0.000000e+00
      13,    5.171990e+00,    5.205714e+00,    4.000000e+00
      14,    3.963110e+00,    3.835650e+00,    4.000000e+00
      15,   -3.835650e+00,    3.963110e+00,    0.000000e+00
      16,   -5.205714e+00,    5.171990e+00,    0.000000e+00
      17,   -5.205714e+00,    5.171990e+00,    4.000000e+00
      18,   -3.835650e+00,    3.963110e+00,    4.000000e+00
      19,   -3.540491e-13,    5.513378e+00,    0.000000e+00
      20,    7.425443e-17,    5.513378e+00,    4.000000e+00
** ... 6898 like lines cut
**
********************************** E L E M E N T S ****************************
*ELEMENT, TYPE=C3D4, ELSET=EB1
       1,    3374,    1652,    1783,    1734
       2,    2825,     274,     258,     259
       3,    2291,    2245,    2244,    3347
       4,    2816,    2245,    3347,    2815
       5,    2283,    2229,    2228,    3349
       6,    3776,     297,     272,     298
       7,    3833,    2931,    2903,    2904
       8,    3847,    3099,    2686,    2685
       9,    4334,    1568,    1438,    1437
      10,    4183,    3207,    3140,    3084
      11,    5553,    4711,    4707,    3370
      12,    3700,    2631,    2515,    2514
      13,    4115,    2959,    3355,    2837
      14,    5902,    5143,    3351,    5142
      15,    2534,    2460,    2459,    3370
      16,    2840,     402,     386,     387
      17,    4479,     390,     410,     389
      18,    4533,     672,     692,     671
      19,    3497,    2189,    2121,    2122
      20,    2784,    1461,      41,    1428
** ... 30957 like lines cut
**
********************************** S I D E S E T S **********************************
*ELSET, ELSET=SS1_S1
      39,      77,      84,     154,     348,     586,     640,     665,     666,     735,
     973,    1057,    1084,    1109,    1117,    1158,    1169,    1199,    1204,    1243,
    1251,    1320,    1326,    1330,    1357,    1363,    1365,    1377,    1419,    1485,
    3213,    3523,    4053,    4056,    4057,    4125,    4134,    4167,    4210,    4215,
    4244,    4255,    4262,    4340,    4343,    4414,    4453,    4526,    4537
*ELSET, ELSET=SS1_S2
       4,      73,      78,      80,     143,     150,     215,     224,     346,     411,
     469,     478,     532,     533,     537,     539,     667,     901,     904,     914,
     997,    1068,    1085,    1113,    1114,    1202,    1208,    1219,    1225,    1244,
    1267,    1272,    1277,    1294,    1299,    1335,    1343,    1362,    1366,    1417,
    1477,    1528,    1554,    1580,    2372,    3023,    3084,    3522,    3741,    3897,
    3978,    4114,    4115,    4120,    4154,    4158,    4164,    4171,    4205,    4212,
    4222,    4225,    4228,    4236,    4276,    4316,    4328,    4331,    4341,    4357,
    4398,    4406,    4417,    4425,    4434,    4448,    4538,    4578,    4596,    4607,
    6214,    7252,    7260,    8196,    8202,    8632,    8669,    8841,    8979,    9131,
    9270,    9294,    9330,    9487,    9519,    9764,   11279,   13399,   14336,   14642,
   15304,   15309,   15482,   16060,   16114,   16147,   16177,   16392,   16412,   16467,
   16652,   16719,   18797,   24011,   24098,   25043
*ELSET, ELSET=SS1_S3
       7,       8,      10,      22,      23,      24,      79,      85,      86,      90,
      99,     132,     140,     178,     185,     190,     213,     240,     243,     334,
     624,     628,     630,     658,     661,     763,     766,     778,     784,     785,
     812,     838,     843,     845,     846,     850,     851,     963,     967,     968,
     969,     972,     974,     976,     978,     984,     985,     986,     987,     993,
     994,    1000,    1001,    1005,    1006,    1007,    1008,    1009,    1010,    1011,
    1012,    1013,    1023,    1029,    1030,    1032,    1034,    1037,    1038,    1040,
    1041,    1042,    1043,    1044,    1046,    1051,    1052,    1053,    1054,    1055,
    1056,    1059,    1060,    1061,    1065,    1066,    1067,    1072,    1076,    1078,
    1079,    1080,    1081,    1087,    1088,    1089,    1090,    1091,    1092,    1093,
    1097,    1099,    1106,    1107,    1115,    1127,    1136,    1141,    1148,    1153,
    1154,    1156,    1162,    1163,    1166,    1167,    1168,    1172,    1176,    1182,
    1183,    1185,    1186,    1188,    1193,    1194,    1197,    1198,    1205,    1206,
    1207,    1212,    1215,    1216,    1217,    1222,    1227,    1241,    1242,    1252,
    1256,    1257,    1258,    1259,    1260,    1261,    1262,    1263,    1264,    1265,
    1266,    1268,    1269,    1270,    1271,    1280,    1283,    1296,    1309,    1310,
    1312,    1318,    1327,    1328,    1333,    1338,    1339,    1341,    1344,    1348,
    1349,    1355,    1359,    1367,    1368,    1370,    1371,    1372,    1373,    1382,
    1387,    1388,    1389,    1390,    1391,    1392,    1393,    1394,    1395,    1396,
    1397,    1398,    1399,    1402,    1404,    1406,    1407,    1410,    1412,    1416,
** ... 114 like lines cut
*ELSET, ELSET=SS1_S4
       2,      16,      20,      25,      38,      43,      82,     138,     146,     211,
     217,     262,     265,     318,     320,     322,     323,     325,     337,     350,
     353,     408,     410,     472,     587,     626,     627,     634,     635,     669,
     671,     673,     718,     720,     894,     908,     910,     983,     995,    1031,
    1033,    1035,    1121,    1130,    1178,    1278,    1292,    1316,    1591,    1691,
    3015,    3182,    3201,    3203,    3212,    3218,    3283,    3284,    3285,    3491,
    3497,    3738,    3896,    3981,    4031,    4038,    4052,    4090,    4100,    4112,
    4139,    4173,    4180,    4206,    4207,    4274,    4277,    4286,    4408,    4419,
    4507,    4647,    6057,    7832,    8225,    8288,    9098,   14337,   14341,   14616,
   15647,   15672,   16081,   16283,   16297
*SURFACE, NAME=SS1
SS1_S1, S1
SS1_S2, S2
SS1_S3, S3
SS1_S4, S4
*ELSET, ELSET=SS2_S1
     202,     272,     274,     453,     461,     800,    1757,    1778,    1782,    1793,
    1819,    1842,    1853,    1860,    1885,    1932,    1947,    2001,    2017,    2053,
    2056,    2107,    2123,    2141,    3048,    3299,    3304,    3329,    3504,    3997,
    4007,    4788,    4803,    4804,    4817,    4842,    4903,    4924,    4943,    4969,
    5001,    5040,    5046,    5056,    5099,    5147,    5177,    5182,    5190
*ELSET, ELSET=SS2_S2
     127,     130,     200,     457,     515,     592,     806,     811,    1761,    1774,
    1792,    1924,    1930,    1945,    1955,    1965,    1968,    1984,    1985,    2057,
    2059,    2070,    2086,    2207,    3055,    3278,    3328,    3435,    3992,    4018,
    4815,    4849,    4860,    4875,    4896,    4906,    4922,    4929,    4935,    4967,
    4991,    5000,    5053,    5095,    5117,    5180,    5185,    5233,    5235,    5318,
    6362,    6916,   10873,   10918,   11503,   17496,   18182,   18252,   18437,   19446,
   20768
*ELSET, ELSET=SS2_S3
       1,      19,      27,      28,      29,      30,      31,      35,      41,      59,
      63,      94,     110,     129,     131,     199,     271,     311,     387,     404,
     446,     451,     454,     459,     483,     489,     589,     619,     690,     695,
     697,     716,     796,     798,     799,     888,    1740,    1742,    1743,    1744,
    1746,    1749,    1750,    1753,    1755,    1758,    1759,    1760,    1762,    1763,
    1772,    1773,    1777,    1781,    1784,    1786,    1787,    1790,    1791,    1795,
    1796,    1797,    1798,    1800,    1801,    1802,    1811,    1815,    1816,    1818,
    1821,    1822,    1823,    1824,    1828,    1829,    1830,    1831,    1838,    1839,
    1856,    1862,    1867,    1886,    1893,    1898,    1899,    1901,    1904,    1905,
    1906,    1907,    1908,    1915,    1916,    1919,    1922,    1926,    1929,    1931,
    1938,    1941,    1942,    1943,    1944,    1946,    1948,    1949,    1952,    1954,
    1957,    1958,    1959,    1963,    1964,    1972,    1973,    1974,    1986,    1989,
    1991,    1994,    1996,    1997,    1999,    2002,    2004,    2006,    2012,    2013,
    2014,    2015,    2018,    2019,    2021,    2023,    2024,    2029,    2031,    2033,
    2035,    2039,    2047,    2049,    2051,    2061,    2062,    2063,    2065,    2067,
    2071,    2074,    2076,    2083,    2089,    2090,    2092,    2095,    2096,    2098,
    2100,    2101,    2111,    2112,    2113,    2118,    2119,    2120,    2122,    2124,
    2125,    2126,    2127,    2129,    2134,    2144,    2145,    2146,    2147,    2148,
    2150,    2151,    2152,    2153,    2154,    2156,    2158,    2159,    2160,    2161,
    2163,    2164,    2165,    2166,    2168,    2169,    2170,    2171,    2173,    2174,
** ... 87 like lines cut
*ELSET, ELSET=SS2_S4
      61,      64,      65,      68,     203,     206,     207,     275,     278,     280,
     284,     286,     289,     290,     291,     295,     296,     307,     312,     313,
     339,     456,     460,     518,     521,     522,     594,     596,     600,     602,
     603,     605,     606,     609,     612,     613,     614,     620,     818,    1766,
    1780,    1805,    1834,    1939,    1978,    2025,    2032,    2139,    3040,    3233,
    3234,    3238,    3239,    3243,    3275,    3296,    3514,    3882,    3883,    3986,
    3998,    4791,    4828,    4830,    4866,    4899,    4909,    4911,    4916,    4927,
    4933,    4939,    4948,    4960,    4965,    4995,    4996,    5038,    5042,    5068,
    5090,    5102,    5127,    5444,    5611,    6505,   10247,   10813,   11655,   17077,
   17243,   17526,   17711,   30665,   30742
*SURFACE, NAME=SS2
SS2_S1, S1
SS2_S2, S2
SS2_S3, S3
SS2_S4, S4
**
********************************** P R O P E R T I E S ************************
*SOLID SECTION, ELSET=EB1, MATERIAL=Default-Steel
**
*END PART
**
**
**
********************************** E N D   P A R T S **********************************
**
**
********************************** A S S E M B L Y ************************************
**
*ASSEMBLY, NAME=ASSEMBLY1
**
*INSTANCE, NAME=Part-Default_1, PART=Part-Default
*END INSTANCE
**
*END ASSEMBLY
**
**
**
*MATERIAL, NAME = Default-Steel
*ELASTIC, TYPE=ISOTROPIC
2.068000e+05, 2.900000e-01
*DENSITY
7.000000e-06
*CONDUCTIVITY,TYPE=ISO
4.500000e-02
*SPECIFIC HEAT
5.000000e+02
**
**
************************************** H I S T O R Y *************************************
**
*PREPRINT
**
**************************************** S T E P 1 ***************************************
*STEP,INC=100,NAME=Default Set
**
*STATIC
1, 1, 1e-05, 1
**
**
**
**
*END STEP
